EVs_20kW/Output_EVs_20kW/output_current_566.csv
# Output_EVs_20kW\output_current_566.csv run at 2000-01-01 09:26:00 EST on 907 links
link_name,currA_mag,currA_angle,currB_mag,currB_angle,currC_mag,currC_angle
Source_Impedance,77.039191,-0.275173,55.940831,3.648278,54.296722,2.054026
TR1,77.039191,-0.275173,55.940831,3.648278,54.296722,2.054026
LINE1,1951.250656,-0.720856,1957.622443,3.310548,965.404740,1.243451
LINE2,1951.250656,-0.720856,1957.622443,3.310548,965.404740,1.243451
LINE3,1951.250656,-0.720856,1957.622443,3.310548,965.404740,1.243451
LINE4,1951.250656,-0.720856,1957.622443,3.310548,965.404740,1.243451
LINE5,1951.250656,-0.720856,1957.622443,3.310548,965.404740,1.243451
LINE6,1951.250656,-0.720856,1957.622443,3.310548,965.404740,1.243451
LINE7,1951.250656,-0.720856,1957.622443,3.310548,965.404740,1.243451
LINE8,1951.250656,-0.720856,1957.622443,3.310548,965.404740,1.243451
LINE9,1951.250656,-0.720856,1957.622443,3.310548,965.404740,1.243451
LINE10,1951.250656,-0.720856,1957.622443,3.310548,965.404740,1.243451
LINE11,1951.250656,-0.720856,1957.622443,3.310548,965.404740,1.243451
LINE12,1951.250656,-0.720856,1957.622443,3.310548,965.404740,1.243451
LINE13,1951.250656,-0.720856,1957.622443,3.310548,965.404740,1.243451
LINE14,1951.250656,-0.720856,1957.622443,3.310548,965.404740,1.243451
LINE15,0.000000,-1.536972,0.000000,3.438411,0.000000,1.530241
LINE16,1951.250656,-0.720856,1957.622443,3.310548,965.404740,1.243451
LINE17,0.000000,4.507604,0.000000,3.116661,0.000000,1.535448
LINE18,1951.250656,-0.720856,1957.622443,3.310548,965.404740,1.243451
LINE19,0.000000,4.507604,0.000000,1.545864,0.000000,1.540005
LINE20,1951.250656,-0.720856,1957.622443,3.310548,965.404740,1.243451
LINE21,0.000000,4.223809,0.000000,2.653013,0.000000,1.539168
LINE22,1951.250656,-0.720856,1957.622443,3.310548,965.404740,1.243451
LINE23,0.000000,4.507604,0.000000,0.760466,0.000000,1.537184
LINE24,1951.250656,-0.720856,1957.622443,3.310548,965.404740,1.243451
LINE25,0.000000,4.687457,0.000000,3.580308,0.000000,1.545864
LINE26,129.256433,-0.837242,0.000000,4.373454,0.000000,1.463046
LINE27,1822.930453,-0.712622,1957.622443,3.310548,965.404740,1.243451
LINE28,0.000000,-1.132081,0.000000,0.000000,0.000000,1.548705
LINE29,64.613666,-0.837297,0.000000,-0.139135,0.000000,4.514012
LINE30,64.642767,-0.837186,0.000000,4.355356,0.000000,1.456696
LINE31,1822.930453,-0.712622,1957.622443,3.310548,965.404740,1.243451
LINE32,0.000000,-0.952227,0.000000,3.394960,0.000000,1.554198
LINE33,64.613666,-0.837297,0.000000,3.979640,0.000000,1.646078
LINE34,64.642767,-0.837186,0.000000,-1.445182,0.000000,-1.390829
LINE35,0.000000,3.225166,139.583591,3.328274,0.000000,1.561237
LINE36,1822.930453,-0.712622,1818.062464,3.309187,965.404740,1.243451
LINE37,0.000000,-0.810330,0.000000,3.187968,0.000000,1.554278
LINE38,64.642767,-0.837186,0.000000,3.905545,0.000000,1.630960
LINE39,0.000000,3.251485,69.795624,3.328287,0.000000,1.555724
LINE40,0.000000,3.296951,69.787967,3.328260,0.000000,-1.526551
LINE41,1822.930453,-0.712622,1818.062464,3.309187,965.404740,1.243451
LINE42,0.000000,1.150130,0.000000,3.236915,0.000000,0.722302
LINE43,0.000000,-1.132081,0.000000,1.545864,0.000000,1.551073
LINE44,64.642767,-0.837186,0.000000,4.256187,0.000000,1.459470
LINE45,0.000000,3.288077,69.795624,3.328287,0.000000,1.565847
LINE46,0.000000,-0.355309,69.787967,3.328260,0.000000,1.559782
LINE47,1822.930453,-0.712622,1818.062464,3.309187,965.404740,1.243451
LINE48,0.000000,1.030526,0.000000,3.003934,0.000000,0.657941
LINE49,0.000000,4.687457,0.000000,1.545864,0.000000,1.545864
LINE50,64.642767,-0.837186,0.000000,3.790778,0.000000,1.195522
LINE51,0.000000,3.237536,69.795624,3.328287,0.000000,1.581520
LINE52,1822.930453,-0.712622,1818.062464,3.309187,965.404740,1.243451
LINE53,0.000000,-0.057854,0.000000,2.222414,0.000000,1.436401
LINE54,0.000000,1.238300,0.000000,3.026427,0.000000,0.388820
LINE55,0.000000,4.687457,0.000000,2.009512,0.000000,1.538920
LINE56,64.642767,-0.837186,0.000000,-0.033349,0.000000,-1.378302
LINE57,0.000000,3.248330,69.795624,3.328287,0.000000,1.435390
LINE58,1822.930453,-0.712622,1818.062464,3.309187,965.404740,1.243451
LINE59,0.000000,0.038715,0.000000,0.338564,0.000000,0.902242
LINE60,0.000000,1.109398,0.000000,3.071734,0.000000,0.440093
LINE61,0.000000,4.306951,0.000000,2.794910,0.000000,1.520870
LINE62,64.642767,-0.837186,0.000000,0.787206,0.000000,-1.329926
LINE63,0.000000,3.021754,69.795624,3.328287,0.000000,-1.467968
LINE64,1674.625179,-0.705152,1818.062464,3.309187,965.404740,1.243451
LINE65,148.878525,-0.796750,0.000000,-0.061773,0.000000,1.450250
LINE66,0.000000,-0.820428,0.000000,0.773595,0.000000,1.001598
LINE67,0.000000,0.846804,0.000000,3.229092,0.000000,0.506731
LINE68,0.000000,-0.488580,0.000000,2.653013,0.000000,1.530241
LINE69,64.642767,-0.837186,0.000000,0.000867,0.000000,1.580043
LINE70,0.000000,1.903253,69.795624,3.328287,0.000000,4.698561
LINE71,1674.625179,-0.705152,1818.062464,3.309187,965.404740,1.243451
LINE72,74.439263,-0.796750,0.000000,0.270896,0.000000,3.556148
LINE73,74.439263,-0.796750,0.000000,0.271003,0.000000,3.631773
LINE74,0.000000,-0.583285,0.000000,3.761800,0.000000,1.268484
LINE75,0.000000,1.043719,0.000000,3.135493,0.000000,0.280889
LINE76,0.000000,-0.787078,0.000000,2.785565,0.000000,1.522059
LINE77,0.000000,-0.358735,69.795624,3.328287,0.000000,4.595916
LINE78,1674.625179,-0.705152,1818.062464,3.309187,965.404740,1.243451
LINE79,0.000000,-0.725449,0.000000,4.169203,0.000000,1.777345
LINE80,0.000000,1.063454,0.000000,3.144282,0.000000,0.325722
LINE81,0.000000,-0.761189,0.000000,2.732056,0.000000,1.522162
LINE82,0.000000,4.196214,69.795624,3.328287,0.000000,4.703636
LINE83,1674.625179,-0.705152,1818.062464,3.309187,965.404740,1.243451
LINE84,0.000000,2.328964,0.000000,0.584744,0.000000,2.475462
LINE85,0.000000,1.068528,0.000000,3.135780,0.000000,0.408260
LINE86,0.000000,-0.668433,0.000000,2.794910,0.000000,1.533216
LINE87,1674.625179,-0.705152,1818.062464,3.309187,965.404740,1.243451
LINE88,0.000000,1.712489,0.000000,1.712489,0.000000,0.891608
LINE89,0.000000,1.096518,0.000000,3.134911,0.000000,0.436077
LINE90,0.000000,-0.488580,0.000000,2.905567,0.000000,1.534704
LINE91,1674.625179,-0.705152,1818.062464,3.309187,965.404740,1.243451
LINE92,0.000000,1.278206,0.000000,2.908192,0.000000,0.612543
LINE93,0.000000,-0.269911,0.000000,2.653013,0.000000,-0.024932
LINE94,1674.625179,-0.705152,1818.062464,3.309187,965.404740,1.243451
LINE95,0.000000,1.417449,0.000000,2.926683,0.000000,0.680756
LINE96,0.000000,4.687457,0.000000,2.653013,0.000000,-1.533309
LINE97,1674.625179,-0.705152,1818.062464,3.309187,965.404740,1.243451
LINE98,0.000000,1.586024,0.000000,2.949198,0.000000,0.897834
LINE99,0.000000,2.653013,0.000000,-0.024932,0.000000,4.687457
LINE100,1674.625179,-0.705152,1818.062464,3.309187,965.404740,1.243451
LINE101,0.000000,1.861407,0.000000,0.553592,0.000000,1.792694
LINE102,0.000000,0.000000,0.000000,0.000000,0.000000,0.000000
LINE103,78.494455,-0.779905,250.865095,3.329596,126.708943,1.245910
LINE104,1596.360700,-0.701480,1567.257975,3.305920,838.696238,1.243079
LINE105,0.000000,1.822926,0.000000,0.395687,0.000000,1.672163
LINE106,78.494455,-0.779905,250.865095,3.329596,126.708943,1.245910
LINE107,1596.360700,-0.701480,1567.257975,3.305920,838.696238,1.243079
LINE108,0.000000,1.793806,0.000000,0.253723,0.000000,1.763674
LINE109,78.494455,-0.779905,250.865095,3.329596,126.708943,1.245910
LINE110,1596.360700,-0.701480,1567.257975,3.305920,838.696238,1.243079
LINE111,0.000000,1.772754,0.000000,0.303283,0.000000,1.789721
LINE112,78.494455,-0.779905,250.865095,3.329596,126.708943,1.245910
LINE113,1596.360700,-0.701480,1567.257975,3.305920,838.696238,1.243079
LINE114,0.000000,1.757942,0.000000,0.305120,0.000000,1.789936
LINE115,78.494455,-0.779905,250.865095,3.329596,126.708943,1.245910
LINE116,81.307543,-0.770165,173.638680,3.330214,127.620830,1.247309
LINE117,1515.255148,-0.697797,1393.676916,3.302894,711.076755,1.242320
LINE118,0.000000,1.750472,0.000000,0.285450,0.000000,1.771893
LINE119,78.494455,-0.779905,250.865095,3.329596,126.708943,1.245910
LINE120,0.000000,1.764533,0.000000,0.379960,0.000000,4.671833
LINE121,81.307543,-0.770165,173.638680,3.330214,127.620830,1.247309
LINE122,1515.255148,-0.697797,1393.676916,3.302894,711.076755,1.242320
LINE123,0.000000,1.893670,0.000000,0.113846,0.000000,1.769484
LINE124,78.494455,-0.779905,250.865095,3.329596,126.708943,1.245910
LINE125,0.000000,2.065011,0.000000,0.369859,0.000000,4.673786
LINE126,81.307543,-0.770165,173.638680,3.330214,127.620830,1.247309
LINE127,1515.255148,-0.697797,1393.676916,3.302894,711.076755,1.242320
LINE128,0.000000,1.547358,0.000000,0.286311,0.000000,1.845863
LINE129,78.494455,-0.779905,250.865095,3.329596,126.708943,1.245910
LINE130,0.000000,2.133867,0.000000,0.438716,0.000000,4.664024
LINE131,81.307543,-0.770165,0.000000,0.404742,0.000000,1.686581
LINE132,0.000000,1.672890,173.638680,3.330214,127.620830,1.247309
LINE133,1515.255148,-0.697797,1393.676916,3.302894,711.076755,1.242320
LINE134,0.000000,2.100903,0.000000,0.304335,0.000000,1.833764
LINE135,78.494455,-0.779905,250.865095,3.329596,126.708943,1.245910
LINE136,0.000000,2.331263,0.000000,0.296819,0.000000,4.645814
LINE137,81.307543,-0.770165,0.000000,0.384326,0.000000,1.688326
LINE138,0.000000,1.685396,173.638680,3.330214,127.620830,1.247309
LINE139,1515.255148,-0.697797,1393.676916,3.302894,711.076755,1.242320
LINE140,0.000000,2.071087,0.000000,0.312062,0.000000,1.859878
LINE141,78.494455,-0.779905,250.865095,3.329596,126.708943,1.245910
LINE142,0.000000,2.653013,0.000000,0.099423,0.000000,4.627633
LINE143,81.307543,-0.770165,0.000000,0.529271,0.000000,1.680637
LINE144,0.000000,1.689022,173.638680,3.330214,127.620830,1.247309
LINE145,1515.255148,-0.697797,1393.676916,3.302894,711.076755,1.242320
LINE146,0.000000,2.285457,0.000000,0.202618,0.000000,1.835708
LINE147,78.494455,-0.779905,250.865095,3.329596,126.708943,1.245910
LINE148,0.000000,2.736154,0.000000,0.296819,0.000000,4.625038
LINE149,81.307543,-0.770165,0.000000,0.346013,0.000000,1.805166
LINE150,0.000000,1.685742,0.000000,1.244156,127.620830,1.247309
LINE151,0.000000,1.870266,173.638680,3.330214,0.000000,1.547364
LINE152,1515.255148,-0.697797,1393.676916,3.302894,711.076755,1.242320
LINE153,0.000000,2.238454,0.000000,0.458360,0.000000,1.859321
LINE154,78.494455,-0.779905,250.865095,3.329596,126.708943,1.245910
LINE155,0.000000,2.757890,0.000000,2.653013,0.000000,4.593980
LINE156,81.307543,-0.770165,0.000000,0.465725,0.000000,2.258284
LINE157,0.000000,1.669500,0.000000,1.256078,127.620830,1.247309
LINE158,0.000000,1.745957,173.638680,3.330214,0.000000,1.542293
LINE159,1515.255148,-0.697797,1393.676916,3.302894,711.076755,1.242320
LINE160,0.000000,-0.074812,0.000000,3.275310,0.000000,1.300889
LINE161,0.000000,2.642361,82.915598,3.328914,0.000000,-1.545517
LINE162,78.494455,-0.779905,167.949526,3.329933,126.708943,1.245910
LINE163,0.000000,2.528658,0.000000,1.545864,0.000000,4.532460
LINE164,81.307543,-0.770165,0.000000,0.619118,0.000000,2.208980
LINE165,0.000000,1.664027,0.000000,1.286095,127.620830,1.247309
LINE166,0.000000,1.878310,173.638680,3.330214,0.000000,1.479640
LINE167,1515.255148,-0.697797,1393.676916,3.302894,711.076755,1.242320
LINE168,0.000000,2.643269,0.000000,-0.314696,0.000000,-0.249354
LINE169,0.000000,2.529245,82.915598,3.328914,0.000000,-1.542846
LINE170,78.494455,-0.779905,167.949526,3.329933,126.708943,1.245910
LINE171,0.000000,2.794910,0.000000,1.545864,0.000000,4.683551
LINE172,81.307543,-0.770165,0.000000,0.758747,0.000000,2.402256
LINE173,0.000000,1.878840,0.000000,1.193610,0.000000,1.457555
LINE174,0.000000,-0.120089,0.000000,2.181537,127.620830,1.247309
LINE175,0.000000,2.147882,173.638680,3.330214,0.000000,4.694309
LINE176,1515.255148,-0.697797,1393.676916,3.302894,711.076755,1.242320
LINE177,0.000000,-1.000869,82.915598,3.328914,0.000000,4.638454
LINE178,78.494455,-0.779905,167.949526,3.329933,0.000000,3.233900
LINE179,0.000000,-0.604006,0.000000,0.917153,126.708943,1.245910
LINE180,0.000000,2.331263,0.000000,2.133867,0.000000,4.690061
LINE181,81.307543,-0.770165,0.000000,0.592813,0.000000,4.223584
LINE182,0.000000,1.835129,0.000000,1.260452,0.000000,1.528183
LINE183,0.000000,-0.134485,0.000000,2.057833,127.620830,1.247309
LINE184,0.000000,2.396547,173.638680,3.330214,0.000000,4.656825
LINE185,1515.255148,-0.697797,1393.676916,3.302894,711.076755,1.242320
LINE186,78.494455,-0.779905,167.949526,3.329933,0.000000,4.333121
LINE187,0.000000,-0.573397,0.000000,0.916370,126.708943,1.245910
LINE188,0.000000,2.331263,0.000000,1.545864,0.000000,3.116661
LINE189,81.307543,-0.770165,0.000000,0.709444,0.000000,3.861169
LINE190,0.000000,2.253715,0.000000,-0.221500,0.000000,2.434084
LINE191,0.000000,1.461637,0.000000,1.228637,0.000000,1.560702
LINE192,0.000000,-0.182070,0.000000,2.252430,127.620830,1.247309
LINE193,0.000000,2.565337,173.638680,3.330214,0.000000,4.630678
LINE194,1515.255148,-0.697797,1393.676916,3.302894,711.076755,1.242320
LINE195,78.494455,-0.779905,167.949526,3.329933,0.000000,4.311092
LINE196,0.000000,3.077204,0.000000,-0.088145,63.341460,1.245859
LINE197,0.000000,-0.685956,0.000000,0.838897,63.367483,1.245960
LINE198,0.000000,3.116661,0.000000,1.545864,0.000000,3.116661
LINE199,81.307543,-0.770165,0.000000,0.575275,0.000000,3.118669
LINE200,0.000000,1.430965,0.000000,1.430965,0.000000,0.918397
LINE201,0.000000,1.069078,0.000000,2.258788,0.000000,1.451183
LINE202,0.000000,-0.100136,0.000000,1.873999,127.620830,1.247309
LINE203,0.000000,2.625484,173.638680,3.330214,0.000000,4.669971
LINE204,1515.255148,-0.697797,1393.676916,3.302894,711.076755,1.242320
LINE205,78.494455,-0.779905,0.000000,-1.105945,0.000000,1.953720
LINE206,0.000000,0.569150,167.949526,3.329933,0.000000,4.358612
LINE207,0.000000,-0.923497,0.000000,2.842278,63.341460,1.245859
LINE208,0.000000,-0.381425,0.000000,0.914050,63.367483,1.245960
LINE209,0.000000,1.545864,0.000000,0.760466,0.000000,1.600497
LINE210,81.307543,-0.770165,0.000000,0.570370,0.000000,3.130333
LINE211,0.000000,2.045889,0.000000,2.045889,0.000000,1.384255
LINE212,0.000000,0.014940,0.000000,1.573306,127.620830,1.247309
LINE213,0.000000,2.480994,173.638680,3.330214,0.000000,4.657664
LINE214,1515.255148,-0.697797,1393.676916,3.302894,711.076755,1.242320
LINE215,78.494455,-0.779905,0.000000,4.018084,0.000000,1.676890
LINE216,0.000000,2.214340,167.949526,3.329933,0.000000,4.506153
LINE217,0.000000,-0.319723,0.000000,0.721877,63.367483,1.245960
LINE218,0.000000,0.000000,0.000000,0.000000,0.000000,3.116661
LINE219,81.307543,-0.770165,0.000000,0.596281,0.000000,3.077960
LINE220,0.000000,1.593384,0.000000,0.586215,0.000000,1.687590
LINE221,0.000000,0.203490,0.000000,1.743360,127.620830,1.247309
LINE222,0.000000,2.469349,173.638680,3.330214,0.000000,4.635836
LINE223,1515.255148,-0.697797,1393.676916,3.302894,711.076755,1.242320
LINE224,78.494455,-0.779905,0.000000,-1.177651,0.000000,1.339824
LINE225,0.000000,1.762136,167.949526,3.329933,0.000000,4.053240
LINE226,0.000000,0.093350,0.000000,0.014603,63.367483,1.245960
LINE227,81.307543,-0.770165,0.000000,0.493663,0.000000,1.842371
LINE228,0.000000,1.430908,0.000000,2.501826,0.000000,1.544828
LINE229,0.000000,0.068641,0.000000,1.460005,127.620830,1.247309
LINE230,0.000000,2.600508,173.638680,3.330214,0.000000,4.663843
LINE231,1515.255148,-0.697797,1393.676916,3.302894,711.076755,1.242320
LINE232,0.000000,-1.479813,167.949526,3.329933,0.000000,1.553180
LINE233,0.000000,1.552439,0.000000,3.371828,0.000000,-1.036698
LINE234,0.000000,3.209810,0.000000,3.481111,63.367483,1.245960
LINE235,81.307543,-0.770165,0.000000,-0.547736,0.000000,1.837597
LINE236,0.000000,1.503135,0.000000,2.984638,0.000000,1.552597
LINE237,0.000000,0.201194,0.000000,2.272283,127.620830,1.247309
LINE238,0.000000,2.674572,173.638680,3.330214,0.000000,-1.503420
LINE239,1515.255148,-0.697797,1393.676916,3.302894,711.076755,1.242320
LINE240,0.000000,-1.135081,167.949526,3.329933,0.000000,1.565585
LINE241,0.000000,4.433759,0.000000,3.183856,63.367483,1.245960
LINE242,81.307543,-0.770165,0.000000,4.216024,0.000000,1.986239
LINE243,0.000000,1.447158,0.000000,3.049396,0.000000,1.349575
LINE244,0.000000,0.224154,0.000000,2.369775,127.620830,1.247309
LINE245,0.000000,2.707938,173.638680,3.330214,0.000000,-1.532615
LINE246,1515.255148,-0.697797,1393.676916,3.302894,711.076755,1.242320
LINE247,0.000000,3.549481,83.974763,3.329933,0.000000,1.631389
LINE248,0.000000,3.549704,83.974763,3.329933,0.000000,1.643380
LINE249,0.000000,3.518830,0.000000,3.518830,63.367483,1.245960
LINE250,81.307543,-0.770165,0.000000,0.096856,0.000000,4.686255
LINE251,0.000000,2.070185,0.000000,2.722886,0.000000,1.066496
LINE252,0.000000,0.509777,0.000000,2.057485,127.620830,1.247309
LINE253,0.000000,2.615213,173.638680,3.330214,0.000000,-1.546391
LINE254,88.006181,-0.753365,0.000000,1.916985,0.000000,-1.569286
LINE255,1427.393175,-0.694373,1393.676916,3.302894,711.076755,1.242320
LINE256,0.000000,3.301332,0.000000,2.667618,63.367483,1.245960
LINE257,81.307543,-0.770165,0.000000,-1.459525,0.000000,1.827880
LINE258,0.000000,1.406566,0.000000,2.819521,0.000000,2.519574
LINE259,0.000000,0.474000,0.000000,1.839659,127.620830,1.247309
LINE260,0.000000,2.754723,173.638680,3.330214,0.000000,-1.471647
LINE261,88.006181,-0.753365,0.000000,1.865126,0.000000,4.711516
LINE262,1427.393175,-0.694373,1393.676916,3.302894,711.076755,1.242320
LINE263,0.000000,-0.428645,0.000000,3.339557,63.367483,1.245960
LINE264,81.307543,-0.770165,0.000000,-0.031796,0.000000,4.600466
LINE265,0.000000,1.696573,0.000000,3.133629,0.000000,2.005793
LINE266,0.000000,0.652308,0.000000,1.839554,127.620830,1.247309
LINE267,0.000000,2.661214,86.872046,3.330364,0.000000,2.750890
LINE268,0.000000,2.634845,86.766635,3.330065,0.000000,4.636482
LINE269,88.006181,-0.753365,0.000000,2.058561,0.000000,4.709842
LINE270,0.000000,-0.571447,0.000000,4.315530,64.124366,1.250024
LINE271,1427.393175,-0.694373,1393.676916,3.302894,646.954480,1.241557
LINE272,81.307543,-0.770165,0.000000,0.900618,0.000000,4.660100
LINE273,0.000000,1.308926,0.000000,2.693068,0.000000,1.840122
LINE274,0.000000,0.427977,0.000000,1.496682,127.620830,1.247309
LINE275,0.000000,4.021399,86.872046,3.330364,0.000000,0.975886
LINE276,0.000000,2.829675,86.766635,3.330065,0.000000,4.494897
LINE277,88.006181,-0.753365,0.000000,2.063786,0.000000,-1.565649
LINE278,0.000000,-0.592648,0.000000,-0.193182,64.124366,1.250024
LINE279,1427.393175,-0.694373,1393.676916,3.302894,646.954480,1.241557
LINE280,81.307543,-0.770165,0.000000,1.251674,0.000000,-1.523983
LINE281,0.000000,-0.509028,0.000000,4.671500,0.000000,2.754982
LINE282,0.000000,0.246036,0.000000,0.465796,127.620830,1.247309
LINE283,0.000000,2.783094,86.766635,3.330065,0.000000,1.700032
LINE284,88.006181,-0.753365,0.000000,1.966714,0.000000,-1.568739
LINE285,0.000000,-0.659996,0.000000,4.453637,64.124366,1.250024
LINE286,723.447454,-0.693784,440.721025,3.282965,126.481511,1.252043
LINE287,703.945976,-0.694978,953.083865,3.312109,520.481613,1.239008
LINE288,81.307543,-0.770165,0.000000,4.437049,0.000000,1.674590
LINE289,0.000000,1.777625,0.000000,1.777625,0.000000,1.414366
LINE290,0.000000,3.350984,0.000000,2.875920,63.848450,1.247456
LINE291,0.000000,0.582563,0.000000,-0.076524,63.772381,1.247162
LINE292,0.000000,2.825290,86.766635,3.330065,0.000000,1.680927
LINE293,88.006181,-0.753365,0.000000,1.769915,0.000000,-1.569719
LINE294,0.000000,-0.407294,0.000000,4.234362,64.124366,1.250024
LINE295,723.447454,-0.693784,440.721025,3.282965,126.481511,1.252043
LINE296,703.945976,-0.694978,953.083865,3.312109,520.481613,1.239008
LINE297,0.000000,3.062940,0.000000,2.357637,63.848450,1.247456
LINE298,0.000000,1.015952,0.000000,3.110567,63.772381,1.247162
LINE299,0.000000,3.084717,86.766635,3.330065,0.000000,4.469649
LINE300,88.006181,-0.753365,0.000000,2.256064,0.000000,-1.565905
LINE301,0.000000,-0.431189,0.000000,-0.527594,64.124366,1.250024
LINE302,723.447454,-0.693784,440.721025,3.282965,126.481511,1.252043
LINE303,703.945976,-0.694978,953.083865,3.312109,520.481613,1.239008
LINE304,0.000000,0.414433,0.000000,2.404714,63.848450,1.247456
LINE305,0.000000,2.597342,0.000000,0.479255,63.772381,1.247162
LINE306,0.000000,2.979156,86.766635,3.330065,0.000000,1.439612
LINE307,88.006181,-0.753365,0.000000,2.384227,0.000000,-1.566731
LINE308,0.000000,-0.429544,0.000000,-0.246116,64.124366,1.250024
LINE309,723.447454,-0.693784,440.721025,3.282965,126.481511,1.252043
LINE310,703.945976,-0.694978,953.083865,3.312109,520.481613,1.239008
LINE311,0.000000,3.549349,0.000000,3.549349,63.848450,1.247456
LINE312,0.000000,1.865486,0.000000,1.621150,63.772381,1.247162
LINE313,0.000000,2.788161,86.766635,3.330065,0.000000,4.668137
LINE314,88.006181,-0.753365,0.000000,2.253636,0.000000,-1.562519
LINE315,0.000000,-1.147432,0.000000,-0.009861,64.124366,1.250024
LINE316,185.626271,-0.738605,0.000000,-0.287611,0.000000,-1.457753
LINE317,538.071894,-0.678326,440.721025,3.282965,126.481511,1.252043
LINE318,703.945976,-0.694978,953.083865,3.312109,520.481613,1.239008
LINE319,0.000000,0.464469,0.000000,3.482513,63.848450,1.247456
LINE320,0.000000,2.942127,0.000000,0.985349,63.772381,1.247162
LINE321,88.006181,-0.753365,0.000000,2.116369,0.000000,-1.561758
LINE322,0.000000,2.058412,0.000000,0.099542,64.124366,1.250024
LINE323,185.626271,-0.738605,0.000000,-0.298636,0.000000,-1.444304
LINE324,538.071894,-0.678326,440.721025,3.282965,126.481511,1.252043
LINE325,703.945976,-0.694978,953.083865,3.312109,520.481613,1.239008
LINE326,0.000000,4.552169,0.000000,4.552169,63.772381,1.247162
LINE327,88.006181,-0.753365,0.000000,2.099253,0.000000,-1.560154
LINE328,0.000000,1.975150,0.000000,3.372246,64.124366,1.250024
LINE329,185.626271,-0.738605,0.000000,-0.345651,0.000000,-1.460718
LINE330,0.000000,-0.355938,0.000000,-0.380143,63.829748,1.253219
LINE331,538.071894,-0.678326,440.721025,3.282965,62.651851,1.250845
LINE332,703.945976,-0.694978,953.083865,3.312109,520.481613,1.239008
LINE333,88.006181,-0.753365,0.000000,2.046072,0.000000,-1.565363
LINE334,0.000000,2.754474,0.000000,0.223269,64.124366,1.250024
LINE335,185.626271,-0.738605,0.000000,-0.369722,0.000000,-1.456957
LINE336,0.000000,3.251541,0.000000,2.446843,63.829748,1.253219
LINE337,0.000000,4.370241,99.378209,3.297511,0.000000,3.582158
LINE338,538.071894,-0.678326,341.356389,3.278731,62.651851,1.250845
LINE339,703.945976,-0.694978,953.083865,3.312109,520.481613,1.239008
LINE340,88.006181,-0.753365,0.000000,2.254690,0.000000,-1.566811
LINE341,0.000000,2.581296,0.000000,2.956813,64.124366,1.250024
LINE342,92.710149,-0.738878,0.000000,0.156738,0.000000,0.942212
LINE343,92.916129,-0.738333,0.000000,-0.348905,0.000000,-1.467638
LINE344,0.000000,4.366675,99.378209,3.297511,0.000000,3.493297
LINE345,538.071894,-0.678326,341.356389,3.278731,62.651851,1.250845
LINE346,703.945976,-0.694978,953.083865,3.312109,520.481613,1.239008
LINE347,88.006181,-0.753365,0.000000,2.116852,0.000000,4.709606
LINE348,92.710149,-0.738878,0.000000,-0.104975,0.000000,4.251258
LINE349,92.916129,-0.738333,0.000000,-0.460275,0.000000,-1.520981
LINE350,0.000000,4.108880,99.378209,3.297511,0.000000,3.933839
LINE351,538.071894,-0.678326,341.356389,3.278731,62.651851,1.250845
LINE352,703.945976,-0.694978,953.083865,3.312109,520.481613,1.239008
LINE353,88.006181,-0.753365,0.000000,2.223804,0.000000,4.710881
LINE354,92.916129,-0.738333,0.000000,-1.540547,0.000000,-1.121947
LINE355,0.000000,3.974169,99.378209,3.297511,0.000000,4.196675
LINE356,538.071894,-0.678326,341.356389,3.278731,62.651851,1.250845
LINE357,703.945976,-0.694978,953.083865,3.312109,520.481613,1.239008
LINE358,88.006181,-0.753365,0.000000,2.344849,0.000000,-1.544682
LINE359,92.916129,-0.738333,0.000000,-1.008976,0.000000,-1.555487
LINE360,0.000000,3.313439,99.378209,3.297511,0.000000,4.602609
LINE361,538.071894,-0.678326,341.356389,3.278731,62.651851,1.250845
LINE362,703.945976,-0.694978,953.083865,3.312109,520.481613,1.239008
LINE363,88.006181,-0.753365,0.000000,3.202320,0.000000,-1.568638
LINE364,92.916129,-0.738333,0.000000,3.749743,0.000000,-0.975802
LINE365,0.000000,3.620245,99.378209,3.297511,0.000000,4.649124
LINE366,538.071894,-0.678326,341.356389,3.278731,62.651851,1.250845
LINE367,703.945976,-0.694978,953.083865,3.312109,520.481613,1.239008
LINE368,88.006181,-0.753365,0.000000,3.541677,0.000000,1.356079
LINE369,92.916129,-0.738333,0.000000,-0.965238,0.000000,-1.446459
LINE370,0.000000,3.505938,99.378209,3.297511,0.000000,4.612095
LINE371,538.071894,-0.678326,341.356389,3.278731,62.651851,1.250845
LINE372,703.945976,-0.694978,953.083865,3.312109,520.481613,1.239008
LINE373,88.006181,-0.753365,0.000000,3.236633,0.000000,-1.372688
LINE374,92.916129,-0.738333,0.000000,-0.521399,0.000000,1.539158
LINE375,0.000000,3.364723,99.378209,3.297511,0.000000,4.633949
LINE376,538.071894,-0.678326,341.356389,3.278731,62.651851,1.250845
LINE377,703.945976,-0.694978,953.083865,3.312109,455.896924,1.237573
LINE378,0.000000,2.880600,0.000000,-0.056707,64.588475,1.249142
LINE379,88.006181,-0.753365,0.000000,0.483382,0.000000,1.782169
LINE380,92.916129,-0.738333,0.000000,0.367460,0.000000,-1.546689
LINE381,0.000000,3.297670,99.378209,3.297511,0.000000,4.679193
LINE382,538.071894,-0.678326,341.356389,3.278731,62.651851,1.250845
LINE383,703.945976,-0.694978,953.083865,3.312109,455.896924,1.237573
LINE384,0.000000,3.014041,0.000000,3.924881,64.588475,1.249142
LINE385,0.000000,2.770664,0.000000,0.135013,0.000000,4.635075
LINE386,88.006181,-0.753365,0.000000,2.053279,0.000000,1.558622
LINE387,92.916129,-0.738333,0.000000,-0.959491,0.000000,-1.525663
LINE388,0.000000,4.287451,99.378209,3.297511,0.000000,4.670995
LINE389,538.071894,-0.678326,341.356389,3.278731,62.651851,1.250845
LINE390,703.945976,-0.694978,953.083865,3.312109,455.896924,1.237573
LINE391,0.000000,2.994342,0.000000,3.888836,64.588475,1.249142
LINE392,0.000000,2.755091,0.000000,0.117501,0.000000,4.635140
LINE393,0.000000,-0.296765,99.378209,3.297511,0.000000,-1.551383
LINE394,538.071894,-0.678326,341.356389,3.278731,62.651851,1.250845
LINE395,0.000000,3.093816,0.000000,2.518956,129.873769,1.248244
LINE396,703.945976,-0.694978,953.083865,3.312109,326.033496,1.233322
LINE397,0.000000,3.167042,0.000000,4.375862,64.588475,1.249142
LINE398,0.000000,2.682483,0.000000,0.138517,0.000000,4.599828
LINE399,0.000000,-0.488208,99.378209,3.297511,0.000000,-1.570620
LINE400,538.071894,-0.678326,341.356389,3.278731,62.651851,1.250845
LINE401,0.000000,3.086747,0.000000,2.477035,129.873769,1.248244
LINE402,703.945976,-0.694978,953.083865,3.312109,326.033496,1.233322
LINE403,0.000000,3.049358,0.000000,4.408251,64.588475,1.249142
LINE404,0.000000,2.804889,0.000000,-0.064510,0.000000,4.606230
LINE405,0.000000,-0.123479,99.378209,3.297511,0.000000,4.682084
LINE406,538.071894,-0.678326,341.356389,3.278731,62.651851,1.250845
LINE407,0.000000,3.085120,0.000000,2.370164,129.873769,1.248244
LINE408,703.945976,-0.694978,953.083865,3.312109,326.033496,1.233322
LINE409,0.000000,-0.427874,0.000000,2.918653,0.000000,1.805469
LINE410,0.000000,3.133821,0.000000,-0.591602,64.588475,1.249142
LINE411,0.000000,3.054872,0.000000,0.178047,0.000000,4.613432
LINE412,538.071894,-0.678326,341.356389,3.278731,62.651851,1.250845
LINE413,0.000000,2.833071,0.000000,1.776061,129.873769,1.248244
LINE414,703.945976,-0.694978,953.083865,3.312109,326.033496,1.233322
LINE415,0.000000,-0.382049,0.000000,2.989085,0.000000,1.850665
LINE416,0.000000,3.120366,0.000000,-1.029162,64.588475,1.249142
LINE417,0.000000,2.420970,0.000000,-0.321065,0.000000,4.394349
LINE418,538.071894,-0.678326,341.356389,3.278731,62.651851,1.250845
LINE419,0.000000,3.601565,0.000000,1.887275,129.873769,1.248244
LINE420,703.945976,-0.694978,953.083865,3.312109,326.033496,1.233322
LINE421,0.000000,-0.267597,0.000000,2.965897,0.000000,1.970818
LINE422,0.000000,3.102590,0.000000,-1.390021,64.588475,1.249142
LINE423,0.000000,2.486475,0.000000,-0.224321,0.000000,4.543848
LINE424,538.071894,-0.678326,341.356389,3.278731,62.651851,1.250845
LINE425,0.000000,-0.201681,0.000000,-0.201681,0.000000,2.996186
LINE426,0.000000,4.046579,0.000000,1.758224,129.873769,1.248244
LINE427,703.945976,-0.694978,953.083865,3.312109,326.033496,1.233322
LINE428,0.000000,-0.144620,0.000000,3.286281,0.000000,1.818251
LINE429,0.000000,2.984407,0.000000,-0.250955,64.588475,1.249142
LINE430,0.000000,2.496081,0.000000,-0.352842,0.000000,4.497094
LINE431,538.071894,-0.678326,341.356389,3.278731,62.651851,1.250845
LINE432,0.000000,2.939912,0.000000,2.939912,0.000000,-0.145406
LINE433,0.000000,4.287845,0.000000,1.801492,129.873769,1.248244
LINE434,703.945976,-0.694978,953.083865,3.312109,326.033496,1.233322
LINE435,0.000000,-0.355897,0.000000,3.341256,0.000000,1.923878
LINE436,0.000000,1.388757,0.000000,3.069998,64.588475,1.249142
LINE437,0.000000,2.378126,0.000000,-0.254863,0.000000,1.984860
LINE438,538.071894,-0.678326,341.356389,3.278731,62.651851,1.250845
LINE439,0.000000,0.000000,0.000000,0.000000,0.000000,0.000000
LINE440,0.000000,4.286355,0.000000,1.883422,129.873769,1.248244
LINE441,703.945976,-0.694978,953.083865,3.312109,326.033496,1.233322
LINE442,0.000000,0.187924,0.000000,3.293874,0.000000,1.949371
LINE443,0.000000,2.251365,0.000000,-0.843306,64.588475,1.249142
LINE444,0.000000,2.176599,0.000000,-0.340550,0.000000,1.943283
LINE445,538.071894,-0.678326,341.356389,3.278731,62.651851,1.250845
LINE446,0.000000,1.462592,0.000000,4.538347,0.000000,1.076585
LINE447,0.000000,3.765583,0.000000,1.788877,129.873769,1.248244
LINE448,703.945976,-0.694978,953.083865,3.312109,326.033496,1.233322
LINE449,0.000000,0.461656,0.000000,3.396235,0.000000,1.993213
LINE450,0.000000,3.451935,0.000000,3.089654,64.588475,1.249142
LINE451,0.000000,2.333565,0.000000,-0.439813,0.000000,4.077571
LINE452,538.071894,-0.678326,341.356389,3.278731,62.651851,1.250845
LINE453,0.000000,1.271473,0.000000,1.271473,0.000000,3.941486
LINE454,0.000000,3.695229,0.000000,1.886867,129.873769,1.248244
LINE455,703.945976,-0.694978,953.083865,3.312109,326.033496,1.233322
LINE456,0.000000,-0.718414,0.000000,3.296101,0.000000,1.854048
LINE457,0.000000,1.404452,0.000000,0.808066,64.588475,1.249142
LINE458,0.000000,2.372565,0.000000,-0.245884,0.000000,4.272144
LINE459,433.725128,-0.674811,341.356389,3.278731,62.651851,1.250845
LINE460,0.000000,0.412204,0.000000,3.748429,0.000000,-1.418579
LINE461,104.360579,-0.692933,0.000000,0.264719,0.000000,-1.541537
LINE462,0.000000,3.554863,0.000000,1.687140,129.873769,1.248244
LINE463,703.945976,-0.694978,953.083865,3.312109,326.033496,1.233322
LINE464,0.000000,-0.783188,0.000000,3.481458,0.000000,2.343739
LINE465,0.000000,2.370171,0.000000,-0.275883,0.000000,4.416466
LINE466,433.725128,-0.674811,341.356389,3.278731,62.651851,1.250845
LINE467,0.000000,-1.451067,0.000000,0.927783,0.000000,1.780879
LINE468,0.000000,-0.602467,0.000000,0.089655,0.000000,0.330684
LINE469,104.360579,-0.692933,0.000000,0.280681,0.000000,-1.539629
LINE470,0.000000,3.576699,0.000000,1.661082,129.873769,1.248244
LINE471,703.945976,-0.694978,953.083865,3.312109,326.033496,1.233322
LINE472,0.000000,0.701110,0.000000,2.606930,0.000000,2.459072
LINE473,0.000000,2.363403,0.000000,-0.249815,0.000000,4.519435
LINE474,433.725128,-0.674811,341.356389,3.278731,62.651851,1.250845
LINE475,0.000000,0.956198,0.000000,3.063775,0.000000,1.300896
LINE476,104.360579,-0.692933,0.000000,0.293819,0.000000,-1.544948
LINE477,0.000000,3.724604,0.000000,1.559201,129.873769,1.248244
LINE478,703.945976,-0.694978,953.083865,3.312109,326.033496,1.233322
LINE479,0.000000,0.604160,0.000000,2.492789,0.000000,2.348243
LINE480,0.000000,2.086175,0.000000,-0.550633,0.000000,3.150881
LINE481,217.878444,-0.670174,341.356389,3.278731,62.651851,1.250845
LINE482,0.000000,-0.644959,0.000000,-0.644959,0.000000,2.028023
LINE483,215.851390,-0.679491,0.000000,0.284717,0.000000,-1.537386
LINE484,104.360579,-0.692933,0.000000,0.256544,0.000000,-1.553315
LINE485,0.000000,3.260013,0.000000,1.095569,129.873769,1.248244
LINE486,703.945976,-0.694978,953.083865,3.312109,326.033496,1.233322
LINE487,0.000000,0.691501,0.000000,1.709425,0.000000,2.869563
LINE488,0.000000,0.382391,0.000000,4.609217,0.000000,1.587228
LINE489,217.878444,-0.670174,341.356389,3.278731,62.651851,1.250845
LINE490,0.000000,0.415534,0.000000,0.415534,0.000000,1.020851
LINE491,107.870612,-0.679617,0.000000,0.271609,0.000000,-1.535638
LINE492,107.980780,-0.679366,0.000000,3.774616,0.000000,-1.545857
LINE493,104.360579,-0.692933,0.000000,0.211452,0.000000,-1.530678
LINE494,0.000000,3.770018,0.000000,0.723468,129.873769,1.248244
LINE495,703.945976,-0.694978,953.083865,3.312109,326.033496,1.233322
LINE496,0.000000,0.901150,0.000000,2.081246,0.000000,3.908177
LINE497,0.000000,3.066320,0.000000,-0.149575,0.000000,3.084745
LINE498,217.878444,-0.670174,341.356389,3.278731,62.651851,1.250845
LINE499,0.000000,0.501482,0.000000,1.410265,0.000000,-1.549056
LINE500,107.870612,-0.679617,0.000000,0.378437,0.000000,-1.545127
LINE501,107.980780,-0.679366,0.000000,4.150920,0.000000,1.546683
LINE502,104.360579,-0.692933,0.000000,0.189738,0.000000,-1.538239
LINE503,0.000000,2.930994,0.000000,0.912880,129.873769,1.248244
LINE504,703.945976,-0.694978,953.083865,3.312109,326.033496,1.233322
LINE505,0.000000,0.871999,0.000000,1.465275,0.000000,4.331195
LINE506,0.000000,2.992017,0.000000,2.992017,0.000000,-0.075346
LINE507,217.878444,-0.670174,341.356389,3.278731,62.651851,1.250845
LINE508,0.000000,0.510913,0.000000,1.433743,0.000000,-1.515550
LINE509,107.870612,-0.679617,0.000000,0.072917,0.000000,-1.549357
LINE510,104.360579,-0.692933,0.000000,0.188881,0.000000,-1.545361
LINE511,0.000000,2.912032,0.000000,0.093125,129.873769,1.248244
LINE512,0.000000,2.931794,104.810438,3.308630,0.000000,3.799930
LINE513,703.945976,-0.694978,848.274140,3.312538,326.033496,1.233322
LINE514,0.000000,1.207266,0.000000,1.666241,0.000000,4.147629
LINE515,0.000000,0.190676,341.356389,3.278731,62.651851,1.250845
LINE516,0.000000,0.108152,0.000000,0.108152,0.000000,1.406130
LINE517,217.878444,-0.670174,0.000000,2.798696,0.000000,1.444300
LINE518,107.870612,-0.679617,0.000000,-0.084146,0.000000,-1.564769
LINE519,104.360579,-0.692933,0.000000,0.176610,0.000000,-1.535029
LINE520,0.000000,3.182819,0.000000,1.743124,129.873769,1.248244
LINE521,0.000000,0.720701,104.810438,3.308630,0.000000,4.513205
LINE522,703.945976,-0.694978,848.274140,3.312538,326.033496,1.233322
LINE523,0.000000,0.535960,0.000000,1.710699,0.000000,2.421064
LINE524,0.000000,0.187464,341.356389,3.278731,62.651851,1.250845
LINE525,0.000000,4.322489,0.000000,-0.460602,0.000000,1.468577
LINE526,217.878444,-0.670174,0.000000,2.792169,0.000000,1.444594
LINE527,107.870612,-0.679617,0.000000,-0.129410,0.000000,-1.545469
LINE528,104.360579,-0.692933,0.000000,0.238420,0.000000,-1.529731
LINE529,0.000000,0.256628,0.000000,-1.413337,129.873769,1.248244
LINE530,703.945976,-0.694978,848.274140,3.312538,326.033496,1.233322
LINE531,0.000000,0.208475,0.000000,2.247941,0.000000,1.969644
LINE532,0.000000,0.196820,341.356389,3.278731,62.651851,1.250845
LINE533,0.000000,3.059765,0.000000,-0.980868,0.000000,1.386675
LINE534,217.878444,-0.670174,0.000000,2.756087,0.000000,1.442647
LINE535,107.870612,-0.679617,0.000000,-0.094018,0.000000,4.645234
LINE536,104.360579,-0.692933,0.000000,0.309978,0.000000,-1.548484
LINE537,0.000000,3.882935,0.000000,3.377995,64.981501,1.248413
LINE538,0.000000,3.130659,0.000000,4.268577,64.892269,1.248075
LINE539,703.945976,-0.694978,848.274140,3.312538,326.033496,1.233322
LINE540,0.000000,1.193780,0.000000,2.440733,0.000000,3.677479
LINE541,0.000000,0.193346,341.356389,3.278731,62.651851,1.250845
LINE542,0.000000,1.404194,0.000000,1.406972,0.000000,4.349109
LINE543,217.878444,-0.670174,0.000000,2.801496,0.000000,1.449365
LINE544,107.870612,-0.679617,0.000000,0.017195,0.000000,-1.568868
LINE545,104.360579,-0.692933,0.000000,0.312642,0.000000,-1.552541
LINE546,0.000000,-0.812156,0.000000,2.244372,64.981501,1.248413
LINE547,703.945976,-0.694978,848.274140,3.312538,326.033496,1.233322
LINE548,0.000000,4.702567,0.000000,0.671134,0.000000,1.984164
LINE549,0.000000,0.185162,341.356389,3.278731,62.651851,1.250845
LINE550,0.000000,-0.029797,0.000000,2.169995,0.000000,4.649622
LINE551,108.925264,-0.670206,0.000000,2.626447,0.000000,1.465441
LINE552,108.953180,-0.670143,0.000000,0.269047,0.000000,4.696347
LINE553,107.870612,-0.679617,0.000000,0.401862,0.000000,4.667456
LINE554,104.360579,-0.692933,0.000000,0.285304,0.000000,-1.548920
LINE555,0.000000,-0.857447,0.000000,-0.086408,64.981501,1.248413
LINE556,703.945976,-0.694978,848.274140,3.312538,326.033496,1.233322
LINE557,0.000000,-0.439930,0.000000,3.026793,0.000000,4.316934
LINE558,0.000000,0.185486,341.356389,3.278731,62.651851,1.250845
LINE559,0.000000,3.481113,0.000000,0.277338,0.000000,1.362548
LINE560,108.925264,-0.670206,0.000000,1.738722,0.000000,1.422208
LINE561,108.953180,-0.670143,0.000000,-0.880699,0.000000,1.524940
LINE562,107.870612,-0.679617,0.000000,4.670420,0.000000,1.554226
LINE563,104.360579,-0.692933,0.000000,0.293193,0.000000,-1.511370
LINE564,703.945976,-0.694978,848.274140,3.312538,326.033496,1.233322
LINE565,0.000000,1.469351,0.000000,3.821462,0.000000,1.242139
LINE566,0.000000,0.256809,113.468960,3.278739,62.651851,1.250845
LINE567,0.000000,3.777791,0.000000,0.026008,0.000000,1.523959
LINE568,0.000000,0.139169,227.887429,3.278727,0.000000,4.705126
LINE569,108.925264,-0.670206,0.000000,4.194854,0.000000,1.511146
LINE570,104.360579,-0.692933,0.000000,0.353779,0.000000,-1.535113
LINE571,703.945976,-0.694978,848.274140,3.312538,326.033496,1.233322
LINE572,0.000000,0.216720,113.468960,3.278739,62.651851,1.250845
LINE573,0.000000,1.296143,0.000000,-1.527591,0.000000,4.578628
LINE574,0.000000,0.138334,227.887429,3.278727,0.000000,4.710662
LINE575,108.925264,-0.670206,0.000000,3.348501,0.000000,1.539447
LINE576,104.360579,-0.692933,0.000000,0.543154,0.000000,-1.474095
LINE577,703.945976,-0.694978,848.274140,3.312538,326.033496,1.233322
LINE578,0.000000,2.888738,113.468960,3.278739,62.651851,1.250845
LINE579,0.000000,3.084537,0.000000,3.084537,0.000000,3.083230
LINE580,0.000000,0.163232,0.000000,3.836293,0.000000,4.491284
LINE581,0.000000,0.144445,227.887429,3.278727,0.000000,4.702855
LINE582,108.925264,-0.670206,0.000000,3.478269,0.000000,1.567472
LINE583,104.360579,-0.692933,0.000000,0.729366,0.000000,-1.522129
LINE584,0.000000,-0.746324,105.979195,3.309220,0.000000,4.644343
LINE585,703.945976,-0.694978,742.295612,3.313012,326.033496,1.233322
LINE586,0.000000,3.062337,113.468960,3.278739,62.651851,1.250845
LINE587,0.000000,-0.558041,0.000000,3.222746,0.000000,1.988955
LINE588,0.000000,0.105477,0.000000,3.577168,0.000000,1.699355
LINE589,0.000000,0.152413,227.887429,3.278727,0.000000,4.706708
LINE590,108.925264,-0.670206,0.000000,3.808146,0.000000,4.496489
LINE591,104.360579,-0.692933,0.000000,1.508996,0.000000,-1.523207
LINE592,0.000000,-0.813678,105.979195,3.309220,0.000000,4.641065
LINE593,703.945976,-0.694978,742.295612,3.313012,326.033496,1.233322
LINE594,0.000000,2.430761,113.468960,3.278739,0.000000,1.578520
LINE595,0.000000,4.050267,0.000000,2.991238,62.651851,1.250845
LINE596,0.000000,0.088495,0.000000,3.553573,0.000000,1.880192
LINE597,0.000000,0.143083,227.887429,3.278727,0.000000,4.699151
LINE598,108.925264,-0.670206,0.000000,3.188621,0.000000,1.549662
LINE599,104.360579,-0.692933,0.000000,1.511513,0.000000,-1.501355
LINE600,0.000000,-0.513282,105.979195,3.309220,0.000000,4.639702
LINE601,0.000000,3.109602,0.000000,0.682229,64.842426,1.239581
LINE602,703.945976,-0.694978,742.295612,3.313012,261.192655,1.231768
LINE603,0.000000,2.790856,113.468960,3.278739,0.000000,-0.949700
LINE604,0.000000,3.063776,0.000000,0.105139,0.000000,3.563966
LINE605,0.000000,1.109486,0.000000,1.109486,0.000000,4.307353
LINE606,0.000000,-0.358411,0.000000,4.552607,62.651851,1.250845
LINE607,0.000000,1.374380,0.000000,4.637700,0.000000,2.769657
LINE608,0.000000,-0.069371,0.000000,3.759818,0.000000,1.918769
LINE609,0.000000,0.137014,227.887429,3.278727,0.000000,4.699924
LINE610,108.925264,-0.670206,0.000000,2.882132,0.000000,1.390441
LINE611,104.360579,-0.692933,0.000000,1.056994,0.000000,-1.493312
LINE612,0.000000,-0.977259,105.979195,3.309220,0.000000,4.586945
LINE613,0.000000,2.762575,0.000000,3.678639,64.842426,1.239581
LINE614,703.945976,-0.694978,742.295612,3.313012,261.192655,1.231768
LINE615,0.000000,3.239223,113.468960,3.278739,0.000000,-1.537099
LINE616,0.000000,1.136005,0.000000,3.061313,0.000000,1.559312
LINE617,0.000000,0.729261,0.000000,2.055205,0.000000,4.270836
LINE618,0.000000,-0.051104,0.000000,-0.999930,62.651851,1.250845
LINE619,0.000000,0.251938,0.000000,3.549330,0.000000,1.952456
LINE620,0.000000,0.130457,227.887429,3.278727,0.000000,4.704555
LINE621,104.360579,-0.692933,0.000000,0.373542,0.000000,1.192051
LINE622,0.000000,-1.117809,105.979195,3.309220,0.000000,4.587822
LINE623,0.000000,0.285935,108.667511,3.304679,0.000000,-1.520971
LINE624,703.945976,-0.694978,633.632521,3.314441,261.192655,1.231768
LINE625,0.000000,3.319053,113.468960,3.278739,0.000000,-1.547420
LINE626,0.000000,0.063447,0.000000,3.756808,0.000000,1.783741
LINE627,0.000000,0.106313,227.887429,3.278727,0.000000,4.704962
LINE628,104.360579,-0.692933,0.000000,3.552025,0.000000,2.771064
LINE629,0.000000,3.350679,105.979195,3.309220,0.000000,4.654628
LINE630,0.000000,0.357181,108.667511,3.304679,0.000000,-1.497552
LINE631,703.945976,-0.694978,633.632521,3.314441,261.192655,1.231768
LINE632,0.000000,3.319053,113.468960,3.278739,0.000000,4.683913
LINE633,0.000000,0.003740,0.000000,3.610140,0.000000,1.777648
LINE634,0.000000,0.088120,227.887429,3.278727,0.000000,4.708750
LINE635,0.000000,3.810368,105.979195,3.309220,0.000000,4.637788
LINE636,0.000000,0.365885,108.667511,3.304679,0.000000,-0.005627
LINE637,703.945976,-0.694978,633.632521,3.314441,261.192655,1.231768
LINE638,0.000000,0.000000,113.468960,3.278739,0.000000,3.074074
LINE639,0.000000,0.005688,0.000000,3.976090,0.000000,1.728013
LINE640,0.000000,0.072540,227.887429,3.278727,0.000000,4.704934
LINE641,0.000000,4.136355,105.979195,3.309220,0.000000,4.658591
LINE642,0.000000,-0.146812,108.667511,3.304679,0.000000,-1.561350
LINE643,703.945976,-0.694978,633.632521,3.314441,261.192655,1.231768
LINE644,0.000000,-0.423792,0.000000,3.899268,0.000000,1.854180
LINE645,0.000000,0.075736,227.887429,3.278727,0.000000,4.703848
LINE646,0.000000,3.912709,105.979195,3.309220,0.000000,4.656525
LINE647,0.000000,-0.148850,108.667511,3.304679,0.000000,4.691827
LINE648,703.945976,-0.694978,633.632521,3.314441,261.192655,1.231768
LINE649,0.000000,0.006620,0.000000,3.798506,0.000000,4.465799
LINE650,0.000000,0.249933,227.887429,3.278727,0.000000,-1.543183
LINE651,0.000000,3.993756,105.979195,3.309220,0.000000,4.636067
LINE652,0.000000,-0.119263,108.667511,3.304679,0.000000,4.701687
LINE653,703.945976,-0.694978,633.632521,3.314441,261.192655,1.231768
LINE654,0.000000,-0.674378,0.000000,4.539474,0.000000,3.060800
LINE655,0.000000,0.077707,113.982622,3.278811,0.000000,-1.553297
LINE656,0.000000,-0.573480,113.904808,3.278643,0.000000,1.562932
LINE657,0.000000,3.998395,105.979195,3.309220,0.000000,4.593110
LINE658,0.000000,-0.014061,108.667511,3.304679,0.000000,4.704583
LINE659,703.945976,-0.694978,633.632521,3.314441,261.192655,1.231768
LINE660,0.000000,-0.948198,0.000000,0.216714,0.000000,4.039665
LINE661,0.000000,0.178569,113.982622,3.278811,0.000000,4.563939
LINE662,0.000000,2.669725,113.904808,3.278643,0.000000,1.512707
LINE663,0.000000,4.384835,105.979195,3.309220,0.000000,4.560484
LINE664,0.000000,0.086045,108.667511,3.304679,0.000000,-1.423475
LINE665,703.945976,-0.694978,633.632521,3.314441,261.192655,1.231768
LINE666,0.000000,4.231920,0.000000,-1.007910,0.000000,4.110027
LINE667,0.000000,2.712960,113.982622,3.278811,0.000000,-1.523016
LINE668,0.000000,2.449676,113.904808,3.278643,0.000000,-1.194485
LINE669,0.000000,4.463721,105.979195,3.309220,0.000000,4.550708
LINE670,0.000000,-0.040786,108.667511,3.304679,0.000000,4.667683
LINE671,299.245377,-0.709349,0.000000,1.144853,0.000000,1.606293
LINE672,404.754342,-0.684354,633.632521,3.314441,261.192655,1.231768
LINE673,0.000000,3.436526,0.000000,-0.923936,0.000000,2.851489
LINE674,0.000000,-1.166520,113.982622,3.278811,0.000000,1.502969
LINE675,0.000000,2.930892,113.904808,3.278643,0.000000,4.709923
LINE676,0.000000,-1.285542,105.979195,3.309220,0.000000,4.563733
LINE677,0.000000,-0.239041,108.667511,3.304679,0.000000,1.613592
LINE678,299.245377,-0.709349,0.000000,0.803655,0.000000,1.616437
LINE679,404.754342,-0.684354,633.632521,3.314441,261.192655,1.231768
LINE680,0.000000,4.592526,0.000000,1.407489,0.000000,1.621699
LINE681,0.000000,3.817106,113.982622,3.278811,0.000000,4.598955
LINE682,0.000000,4.642133,105.979195,3.309220,0.000000,4.477065
LINE683,0.000000,-0.732807,108.667511,3.304679,0.000000,1.571017
LINE684,299.245377,-0.709349,0.000000,0.881184,0.000000,1.603124
LINE685,404.754342,-0.684354,633.632521,3.314441,261.192655,1.231768
LINE686,0.000000,4.117656,105.979195,3.309220,0.000000,4.549845
LINE687,0.000000,1.436221,108.667511,3.304679,0.000000,1.683668
LINE688,299.245377,-0.709349,0.000000,1.281665,0.000000,1.611151
LINE689,0.000000,-0.115434,0.000000,3.580482,130.321772,1.237793
LINE690,404.754342,-0.684354,633.632521,3.314441,130.875604,1.225769
LINE691,0.000000,3.928199,105.979195,3.309220,0.000000,4.587181
LINE692,299.245377,-0.709349,0.000000,0.847608,0.000000,1.600063
LINE693,0.000000,-0.117117,0.000000,3.563242,65.170511,1.237830
LINE694,0.000000,3.519273,0.000000,-1.107596,65.151261,1.237757
LINE695,0.000000,-0.626032,113.531161,3.303493,0.000000,1.619367
LINE696,404.754342,-0.684354,520.109648,3.316831,130.875604,1.225769
LINE697,0.000000,4.172344,105.979195,3.309220,0.000000,4.665917
LINE698,299.245377,-0.709349,0.000000,0.695064,0.000000,1.647854
LINE699,0.000000,-0.120429,0.000000,3.590486,65.170511,1.237830
LINE700,0.000000,-0.096779,0.000000,-0.173750,65.151261,1.237757
LINE701,0.000000,1.240681,113.531161,3.303493,0.000000,1.584200
LINE702,404.754342,-0.684354,520.109648,3.316831,130.875604,1.225769
LINE703,0.000000,4.096852,105.979195,3.309220,0.000000,4.656146
LINE704,299.245377,-0.709349,0.000000,0.592646,0.000000,1.640848
LINE705,0.000000,-0.117563,0.000000,3.605108,65.170511,1.237830
LINE706,404.754342,-0.684354,520.109648,3.316831,130.875604,1.225769
LINE707,0.000000,3.531258,0.000000,1.209898,0.000000,2.757051
LINE708,0.000000,4.016005,105.979195,3.309220,0.000000,4.656301
LINE709,299.245377,-0.709349,0.000000,0.552305,0.000000,1.641865
LINE710,0.000000,-0.116141,0.000000,3.561968,65.170511,1.237830
LINE711,204.361605,-0.671997,520.109648,3.316831,130.875604,1.225769
LINE712,200.424247,-0.696953,0.000000,3.387481,0.000000,1.528409
LINE713,0.000000,3.347375,0.000000,1.082169,0.000000,2.916598
LINE714,0.000000,3.707336,105.979195,3.309220,0.000000,4.682588
LINE715,299.245377,-0.709349,0.000000,0.556030,0.000000,1.643852
LINE716,0.000000,0.006685,0.000000,3.623214,65.170511,1.237830
LINE717,204.361605,-0.671997,520.109648,3.316831,130.875604,1.225769
LINE718,200.424247,-0.696953,0.000000,3.407966,0.000000,1.533851
LINE719,0.000000,3.480923,0.000000,1.070500,0.000000,3.881408
LINE720,0.000000,3.811773,105.979195,3.309220,0.000000,4.621819
LINE721,299.245377,-0.709349,0.000000,0.599241,0.000000,1.646705
LINE722,0.000000,1.954976,0.000000,0.245772,65.170511,1.237830
LINE723,204.361605,-0.671997,272.031937,3.319983,130.875604,1.225769
LINE724,0.000000,-0.132629,248.080545,3.313374,0.000000,1.583980
LINE725,200.424247,-0.696953,0.000000,3.407392,0.000000,1.520536
LINE726,0.000000,3.281034,0.000000,0.961214,0.000000,3.990651
LINE727,0.000000,4.001591,105.979195,3.309220,0.000000,1.417056
LINE728,299.245377,-0.709349,0.000000,0.609990,0.000000,1.653083
LINE729,0.000000,2.742485,0.000000,0.058866,65.170511,1.237830
LINE730,204.361605,-0.671997,272.031937,3.319983,130.875604,1.225769
LINE731,0.000000,-0.135570,248.080545,3.313374,0.000000,1.582987
LINE732,200.424247,-0.696953,0.000000,3.642869,0.000000,1.521958
LINE733,0.000000,3.253976,0.000000,0.963908,0.000000,4.272233
LINE734,0.000000,3.601476,105.979195,3.309220,0.000000,-1.436838
LINE735,299.245377,-0.709349,0.000000,0.529412,0.000000,1.685326
LINE736,0.000000,3.143579,0.000000,2.490570,65.170511,1.237830
LINE737,204.361605,-0.671997,272.031937,3.319983,130.875604,1.225769
LINE738,0.000000,-0.131867,248.080545,3.313374,0.000000,1.580688
LINE739,200.424247,-0.696953,0.000000,3.566587,0.000000,1.535407
LINE740,0.000000,3.336276,0.000000,0.801858,0.000000,4.109693
LINE741,0.000000,4.251149,105.979195,3.309220,0.000000,1.483694
LINE742,299.245377,-0.709349,0.000000,0.448479,0.000000,1.697703
LINE743,0.000000,0.649594,0.000000,-0.593102,65.170511,1.237830
LINE744,204.361605,-0.671997,272.031937,3.319983,130.875604,1.225769
LINE745,0.000000,4.060351,124.116009,3.313524,0.000000,1.402710
LINE746,0.000000,-0.182037,123.964539,3.313224,0.000000,1.569039
LINE747,200.424247,-0.696953,0.000000,3.665992,0.000000,1.517432
LINE748,0.000000,3.362932,0.000000,0.859617,0.000000,4.357730
LINE749,0.000000,3.431205,105.979195,3.309220,0.000000,1.406008
LINE750,299.245377,-0.709349,0.000000,0.484708,0.000000,1.718175
LINE751,0.000000,-0.244937,0.000000,2.903911,65.170511,1.237830
LINE752,204.361605,-0.671997,272.031937,3.319983,0.000000,1.386606
LINE753,0.000000,-0.688045,0.000000,3.705312,130.875604,1.225769
LINE754,0.000000,-1.021263,124.116009,3.313524,0.000000,-1.499771
LINE755,0.000000,-0.303698,123.964539,3.313224,0.000000,1.954609
LINE756,200.424247,-0.696953,0.000000,3.602626,0.000000,1.518438
LINE757,0.000000,3.400370,0.000000,0.965301,0.000000,3.947182
LINE758,0.000000,2.963609,105.979195,3.309220,0.000000,-1.353260
LINE759,299.245377,-0.709349,0.000000,0.420482,0.000000,1.751380
LINE760,0.000000,2.706781,0.000000,4.495464,65.170511,1.237830
LINE761,204.361605,-0.671997,272.031937,3.319983,0.000000,1.386723
LINE762,0.000000,-0.695291,0.000000,3.706922,130.875604,1.225769
LINE763,0.000000,-0.152027,123.964539,3.313224,0.000000,1.612777
LINE764,200.424247,-0.696953,0.000000,3.568303,0.000000,1.534075
LINE765,0.000000,3.171237,0.000000,0.849345,0.000000,4.483392
LINE766,0.000000,3.147732,105.979195,3.309220,0.000000,1.166325
LINE767,299.245377,-0.709349,0.000000,0.519919,0.000000,1.763093
LINE768,0.000000,-0.568473,0.000000,2.737938,65.170511,1.237830
LINE769,204.361605,-0.671997,272.031937,3.319983,0.000000,1.395854
LINE770,0.000000,-0.156296,0.000000,3.554022,65.453721,1.225829
LINE771,0.000000,-0.653696,0.000000,3.687777,65.421883,1.225709
LINE772,0.000000,-0.271255,123.964539,3.313224,0.000000,1.625206
LINE773,200.424247,-0.696953,0.000000,3.523040,0.000000,1.532417
LINE774,0.000000,3.317704,0.000000,0.933093,0.000000,4.661279
LINE775,0.000000,3.039189,105.979195,3.309220,0.000000,-1.074565
LINE776,299.245377,-0.709349,0.000000,0.421739,0.000000,1.883271
LINE777,0.000000,2.472873,0.000000,3.977973,65.170511,1.237830
LINE778,204.361605,-0.671997,272.031937,3.319983,0.000000,1.388223
LINE779,0.000000,-0.161911,0.000000,3.687182,65.453721,1.225829
LINE780,0.000000,-0.576307,0.000000,3.931202,65.421883,1.225709
LINE781,0.000000,-0.357553,123.964539,3.313224,0.000000,1.620968
LINE782,200.424247,-0.696953,0.000000,3.566421,0.000000,1.544534
LINE783,0.000000,3.097400,0.000000,0.658849,0.000000,-1.341893
LINE784,0.000000,-0.763380,105.979195,3.309220,0.000000,-1.508510
LINE785,299.245377,-0.709349,0.000000,0.455938,0.000000,1.827420
LINE786,204.361605,-0.671997,272.031937,3.319983,0.000000,1.420795
LINE787,0.000000,-0.909758,0.000000,3.738355,65.421883,1.225709
LINE788,0.000000,-0.215060,123.964539,3.313224,0.000000,4.473167
LINE789,200.424247,-0.696953,0.000000,3.623653,0.000000,1.532610
LINE790,0.000000,3.163421,0.000000,0.940150,0.000000,-1.490904
LINE791,199.495919,-0.709350,0.000000,0.472109,0.000000,2.045148
LINE792,99.749457,-0.709346,0.000000,-1.302052,0.000000,1.612141
LINE793,204.361605,-0.671997,272.031937,3.319983,0.000000,1.441432
LINE794,0.000000,-1.261927,0.000000,3.596758,65.421883,1.225709
LINE795,0.000000,-0.062897,123.964539,3.313224,0.000000,4.709110
LINE796,200.424247,-0.696953,0.000000,3.674258,0.000000,1.517053
LINE797,0.000000,2.958585,0.000000,0.713999,0.000000,4.631872
LINE798,199.495919,-0.709350,0.000000,0.345078,0.000000,1.735913
LINE799,99.749457,-0.709346,0.000000,3.938205,0.000000,1.612059
LINE800,204.361605,-0.671997,0.000000,0.378432,0.000000,1.488310
LINE801,0.000000,3.179358,272.031937,3.319983,0.000000,4.687659
LINE802,0.000000,4.653216,0.000000,3.698044,65.421883,1.225709
LINE803,0.000000,-0.329023,123.964539,3.313224,0.000000,-1.464506
LINE804,200.424247,-0.696953,0.000000,3.644713,0.000000,1.537504
LINE805,0.000000,2.638003,0.000000,0.773951,0.000000,0.101507
LINE806,199.495919,-0.709350,0.000000,0.176136,0.000000,1.818683
LINE807,99.749457,-0.709346,0.000000,2.293303,0.000000,3.636818
LINE808,204.361605,-0.671997,0.000000,0.600870,0.000000,1.500065
LINE809,0.000000,3.347949,272.031937,3.319983,0.000000,-1.501716
LINE810,0.000000,1.306697,0.000000,4.586025,0.000000,1.572872
LINE811,0.000000,3.436399,0.000000,2.997903,65.421883,1.225709
LINE812,0.000000,0.056738,123.964539,3.313224,0.000000,-0.660462
LINE813,200.424247,-0.696953,0.000000,3.697105,0.000000,1.543519
LINE814,0.000000,0.288257,0.000000,1.309287,0.000000,4.627718
LINE815,199.495919,-0.709350,0.000000,0.088661,0.000000,1.696439
LINE816,99.749457,-0.709346,0.000000,-0.079603,0.000000,1.513166
LINE817,204.361605,-0.671997,0.000000,0.482073,0.000000,1.488102
LINE818,0.000000,3.513713,272.031937,3.319983,0.000000,-1.508228
LINE819,0.000000,4.681450,0.000000,4.621366,0.000000,1.556816
LINE820,0.000000,3.536942,0.000000,2.677133,65.421883,1.225709
LINE821,200.424247,-0.696953,0.000000,3.578099,0.000000,1.553885
LINE822,0.000000,0.648964,0.000000,-0.583983,0.000000,-1.447231
LINE823,199.495919,-0.709350,0.000000,0.075713,0.000000,1.668470
LINE824,204.361605,-0.671997,0.000000,0.351687,0.000000,1.332223
LINE825,0.000000,3.495076,272.031937,3.319983,0.000000,-1.512496
LINE826,0.000000,1.450111,0.000000,1.450111,0.000000,4.510708
LINE827,0.000000,-0.384146,0.000000,2.992353,65.421883,1.225709
LINE828,200.424247,-0.696953,0.000000,3.544959,0.000000,1.554733
LINE829,0.000000,3.515656,0.000000,0.147090,0.000000,1.851142
LINE830,199.495919,-0.709350,0.000000,0.754742,0.000000,1.681455
LINE831,204.361605,-0.671997,0.000000,0.355054,0.000000,1.349657
LINE832,0.000000,3.486861,272.031937,3.319983,0.000000,4.685212
LINE833,0.000000,4.118203,0.000000,-0.442799,0.000000,-1.322550
LINE834,0.000000,3.986839,0.000000,-0.936069,65.421883,1.225709
LINE835,200.424247,-0.696953,0.000000,3.512611,0.000000,1.550587
LINE836,199.495919,-0.709350,0.000000,2.134022,0.000000,1.713056
LINE837,204.361605,-0.671997,0.000000,0.473454,0.000000,-1.468265
LINE838,0.000000,3.288351,272.031937,3.319983,0.000000,4.493235
LINE839,0.000000,-0.179256,0.000000,-0.595038,0.000000,-1.446998
LINE840,200.424247,-0.696953,0.000000,3.517460,0.000000,1.550433
LINE841,199.495919,-0.709350,0.000000,1.012796,0.000000,1.568906
LINE842,204.361605,-0.671997,0.000000,0.419818,0.000000,-1.531886
LINE843,0.000000,3.198429,272.031937,3.319983,0.000000,3.074074
LINE844,0.000000,-0.648469,0.000000,3.001667,0.000000,4.618057
LINE845,0.000000,3.314678,0.000000,3.314678,0.000000,0.222891
LINE846,200.424247,-0.696953,0.000000,3.517169,0.000000,1.555398
LINE847,199.495919,-0.709350,0.000000,2.519389,0.000000,1.466013
LINE848,204.361605,-0.671997,0.000000,0.217808,0.000000,-1.564433
LINE849,0.000000,3.136493,272.031937,3.319983,0.000000,3.074074
LINE850,0.000000,0.444557,0.000000,2.483351,0.000000,4.495841
LINE851,0.000000,-0.201681,0.000000,3.003463,0.000000,3.237027
LINE852,200.424247,-0.696953,0.000000,3.642854,0.000000,1.569176
LINE853,199.495919,-0.709350,0.000000,2.104618,0.000000,4.645277
LINE854,204.361605,-0.671997,0.000000,0.092010,0.000000,-1.523864
LINE855,0.000000,3.096797,272.031937,3.319983,0.000000,1.767766
LINE856,0.000000,0.468658,0.000000,2.225321,0.000000,4.540356
LINE857,0.000000,3.502380,0.000000,-0.364009,0.000000,4.511335
LINE858,200.424247,-0.696953,0.000000,3.537500,0.000000,1.576037
LINE859,99.567875,-0.709795,0.000000,3.398600,0.000000,1.552016
LINE860,99.928064,-0.708906,0.000000,4.287781,0.000000,-1.504826
LINE861,204.361605,-0.671997,0.000000,0.098964,0.000000,-1.527984
LINE862,0.000000,3.150846,272.031937,3.319983,0.000000,4.042583
LINE863,0.000000,0.112429,0.000000,2.911397,0.000000,4.450756
LINE864,0.000000,4.490544,0.000000,1.614094,0.000000,0.706045
LINE865,200.424247,-0.696953,0.000000,3.385836,0.000000,1.622591
LINE866,204.361605,-0.671997,0.000000,0.126194,0.000000,-1.522590
LINE867,0.000000,2.829095,272.031937,3.319983,0.000000,4.644870
LINE868,0.000000,0.664084,0.000000,2.342072,0.000000,4.408155
LINE869,0.000000,3.643332,0.000000,3.643332,0.000000,-1.349167
LINE870,200.424247,-0.696953,0.000000,0.043599,0.000000,1.872451
LINE871,204.361605,-0.671997,0.000000,0.130245,0.000000,-1.506121
LINE872,0.000000,0.000000,136.209409,3.320341,0.000000,4.520515
LINE873,0.000000,0.000000,135.822546,3.319625,0.000000,1.503278
LINE874,0.000000,0.542100,0.000000,2.768821,0.000000,3.545513
LINE875,0.000000,3.835549,0.000000,-0.477193,0.000000,2.154514
LINE876,200.424247,-0.696953,0.000000,0.785977,0.000000,1.497903
LINE877,204.361605,-0.671997,0.000000,0.121885,0.000000,-1.485759
LINE878,0.000000,4.644870,136.209409,3.320341,0.000000,1.627633
LINE879,0.000000,3.074074,135.822546,3.319625,0.000000,-0.067519
LINE880,0.000000,-0.201681,0.000000,2.992195,0.000000,-0.176356
LINE881,0.000000,2.672431,0.000000,1.798533,0.000000,-1.550801
LINE882,200.424247,-0.696953,0.000000,-0.644792,0.000000,-1.529180
LINE883,204.361605,-0.671997,0.000000,0.256692,0.000000,-1.455896
LINE884,0.000000,4.644870,136.209409,3.320341,0.000000,3.074074
LINE885,0.000000,0.000000,135.822546,3.319625,0.000000,1.565697
LINE886,200.424247,-0.696953,0.000000,0.104242,0.000000,1.501535
LINE887,102.207197,-0.671824,0.000000,0.240116,0.000000,-1.442140
LINE888,102.154411,-0.672170,0.000000,-1.506435,0.000000,1.513756
LINE889,0.000000,1.503278,136.209409,3.320341,0.000000,1.688626
LINE890,200.424247,-0.696953,0.000000,2.597501,0.000000,2.407564
LINE891,102.207197,-0.671824,0.000000,0.175346,0.000000,-0.944088
LINE892,102.154411,-0.672170,0.000000,4.564865,0.000000,1.518839
LINE893,0.000000,1.503278,136.209409,3.320341,0.000000,-1.513960
LINE894,100.463022,-0.696339,0.000000,2.336933,0.000000,-1.540203
LINE895,99.961262,-0.697570,0.000000,0.373420,0.000000,-1.268338
LINE896,102.207197,-0.671824,0.000000,0.262717,0.000000,4.700185
LINE897,102.154411,-0.672170,0.000000,-0.881345,0.000000,1.253820
LINE898,0.000000,0.000000,136.209409,3.320341,0.000000,0.000000
LINE899,100.463022,-0.696339,0.000000,2.843924,0.000000,-1.458036
LINE900,102.207197,-0.671824,0.000000,0.213505,0.000000,1.257451
LINE901,102.207197,-0.671824,0.000000,-0.284659,0.000000,1.415722
LINE902,102.207197,-0.671824,0.000000,3.243230,0.000000,1.495670
LINE903,102.207197,-0.671824,0.000000,2.552777,0.000000,1.632775
LINE904,102.207197,-0.671824,0.000000,4.317855,0.000000,-1.477513
LINE905,102.207197,-0.671824,0.000000,4.054021,0.000000,4.651970
